<?xml version="1.0" encoding="ISO-8859-1"?>
<febio_spec version="3.0">
	<Module type="solid"/>
	<Globals>
		<Constants>
			<T>0</T>
			<R>0</R>
			<Fc>0</Fc>
		</Constants>
	</Globals>
	<Material>
		<material id="1" name="Femur" type="rigid body">
			<density>1</density>
			<center_of_mass>-0.0375,0,0.0375</center_of_mass>
		</material>
		<material id="2" name="Cartilage" type="neo-Hookean">
			<density>1</density>
			<E>6000000</E>
			<v>0.4</v>
		</material>
		<material id="3" name="Tibia" type="rigid body">
			<density>1</density>
			<center_of_mass>0,0,0</center_of_mass>
		</material>
	</Material>
	<Mesh>
		<Nodes name="TESTCartilageCurved">
			<node id="1">0,0,0</node>
			<node id="2">0,0,-0.005</node>
			<node id="3">-0.075,0,0</node>
			<node id="4">-0.08,0,-0.005</node>
			<node id="5">-0.075,0,0.0375</node>
			<node id="6">-0.08,0,0.0375</node>
			<node id="7">-4.8985872e-18,0.08,-0.005</node>
			<node id="8">-4.8985872e-18,0.08,0.0375</node>
			<node id="9">-4.5924255e-18,0.075,0.0375</node>
			<node id="10">-4.5924255e-18,0.075,0</node>
			<node id="11">0,0,0.0375</node>
			<node id="12">0,0,-0.00166666667</node>
			<node id="13">0,0,-0.00333333333</node>
			<node id="14">-0.0775,0,0.0375</node>
			<node id="15">-0.00190457489,0,6.12367924e-06</node>
			<node id="16">-0.00380907247,0,2.48160003e-05</node>
			<node id="17">-0.00571338247,0,5.65810355e-05</node>
			<node id="18">-0.00761742468,0,0.000101955486</node>
			<node id="19">-0.00952106573,0,0.000161510042</node>
			<node id="20">-0.0114241919,0,0.000235854062</node>
<!-- ... 5012 like lines cut -->
		</Nodes>
		<Elements type="tet4" name="Part100">
			<elem id="1">490,489,4252,4285</elem>
			<elem id="2">2708,4218,4477,4857</elem>
			<elem id="3">641,4051,4036,4546</elem>
			<elem id="4">4132,4251,1077,4394</elem>
			<elem id="5">4206,4709,1536,4814</elem>
			<elem id="6">1014,4234,4201,4646</elem>
			<elem id="7">3105,4413,4228,4583</elem>
			<elem id="8">2230,3511,324,4027</elem>
			<elem id="9">2993,4311,4328,4404</elem>
			<elem id="10">4206,1536,4244,4814</elem>
			<elem id="11">2219,3894,4020,4409</elem>
			<elem id="12">4541,4567,2819,4643</elem>
			<elem id="13">4058,4238,2458,4323</elem>
			<elem id="14">3591,4201,4371,4804</elem>
			<elem id="15">3849,3624,3915,4706</elem>
			<elem id="16">2708,4477,2629,4857</elem>
			<elem id="17">4076,4120,708,4204</elem>
			<elem id="18">3014,4316,4420,4450</elem>
			<elem id="19">3989,4389,3875,4641</elem>
			<elem id="20">857,4420,4316,4450</elem>
<!-- ... 17997 like lines cut -->
		</Elements>
		<Surface name="FixedDisplacement1">
			<tri3 id="1">3983,3921,3947</tri3>
			<tri3 id="2">3954,4010,4011</tri3>
			<tri3 id="3">3926,4007,4016</tri3>
			<tri3 id="4">3994,3940,3962</tri3>
			<tri3 id="5">3947,3921,3989</tri3>
			<tri3 id="6">3936,3961,3992</tri3>
			<tri3 id="7">3971,3932,3964</tri3>
			<tri3 id="8">4006,3934,3953</tri3>
			<tri3 id="9">3925,3949,4013</tri3>
			<tri3 id="10">4007,4017,4016</tri3>
			<tri3 id="11">4000,3935,4003</tri3>
			<tri3 id="12">3965,3942,3974</tri3>
			<tri3 id="13">4001,4005,3937</tri3>
			<tri3 id="14">3962,4000,4003</tri3>
			<tri3 id="15">3936,3993,3961</tri3>
			<tri3 id="16">3931,3990,4015</tri3>
			<tri3 id="17">3925,4014,3948</tri3>
			<tri3 id="18">3949,4008,3930</tri3>
			<tri3 id="19">3928,3984,3988</tri3>
			<tri3 id="20">4012,3949,3925</tri3>
<!-- ... 279 like lines cut -->
		</Surface>
		<Surface name="FixedDisplacement2">
			<tri3 id="1">346,379,324</tri3>
			<tri3 id="2">354,358,328</tri3>
			<tri3 id="3">356,350,353</tri3>
			<tri3 id="4">355,327,349</tri3>
			<tri3 id="5">381,322,343</tri3>
			<tri3 id="6">328,358,341</tri3>
			<tri3 id="7">377,345,323</tri3>
			<tri3 id="8">346,324,384</tri3>
			<tri3 id="9">381,343,382</tri3>
			<tri3 id="10">344,376,319</tri3>
			<tri3 id="11">325,348,357</tri3>
			<tri3 id="12">362,324,379</tri3>
			<tri3 id="13">393,312,331</tri3>
			<tri3 id="14">375,344,319</tri3>
			<tri3 id="15">331,312,397</tri3>
			<tri3 id="16">338,311,367</tri3>
			<tri3 id="17">359,380,335</tri3>
			<tri3 id="18">313,392,391</tri3>
			<tri3 id="19">386,364,318</tri3>
			<tri3 id="20">383,323,345</tri3>
<!-- ... 279 like lines cut -->
		</Surface>
		<Surface name="Rigid1">
			<tri3 id="1">3849,3915,3624</tri3>
			<tri3 id="2">3813,2230,3511</tri3>
			<tri3 id="3">3251,3185,3183</tri3>
			<tri3 id="4">2916,2870,2723</tri3>
			<tri3 id="5">3461,2451,2458</tri3>
			<tri3 id="6">3822,3060,3057</tri3>
			<tri3 id="7">3916,3516,2215</tri3>
			<tri3 id="8">3104,3106,3105</tri3>
			<tri3 id="9">3021,3795,3019</tri3>
			<tri3 id="10">3440,3803,3201</tri3>
			<tri3 id="11">3470,2769,2691</tri3>
			<tri3 id="12">2993,2852,3271</tri3>
			<tri3 id="13">3200,3820,3033</tri3>
			<tri3 id="14">3591,3727,2631</tri3>
			<tri3 id="15">2188,3795,3378</tri3>
			<tri3 id="16">3549,2432,2442</tri3>
			<tri3 id="17">2219,3894,3718</tri3>
			<tri3 id="18">3845,3065,3822</tri3>
			<tri3 id="19">3305,3033,3820</tri3>
			<tri3 id="20">3077,3078,3076</tri3>
<!-- ... 3593 like lines cut -->
		</Surface>
		<Surface name="RigidWall1">
			<tri3 id="1">1850,878,952</tri3>
			<tri3 id="2">1206,1428,1158</tri3>
			<tri3 id="3">867,974,1060</tri3>
			<tri3 id="4">787,784,1474</tri3>
			<tri3 id="5">578,883,576</tri3>
			<tri3 id="6">828,1500,1809</tri3>
			<tri3 id="7">1267,1950,1994</tri3>
			<tri3 id="8">778,785,815</tri3>
			<tri3 id="9">512,514,1696</tri3>
			<tri3 id="10">1830,853,1169</tri3>
			<tri3 id="11">1924,1683,1706</tri3>
			<tri3 id="12">533,534,532</tri3>
			<tri3 id="13">641,643,1929</tri3>
			<tri3 id="14">1274,1273,1272</tri3>
			<tri3 id="15">1178,1012,1177</tri3>
			<tri3 id="16">2091,1554,1555</tri3>
			<tri3 id="17">1224,1701,1241</tri3>
			<tri3 id="18">636,635,633</tri3>
			<tri3 id="19">1173,1587,1804</tri3>
			<tri3 id="20">490,491,489</tri3>
<!-- ... 3591 like lines cut -->
		</Surface>
	</Mesh>
	<MeshDomains>
		<SolidDomain name="Part100" mat="Cartilage"/>
	</MeshDomains>
	<Boundary>
		<bc name="FixedDisplacement1" type="fix" node_set="@surface:FixedDisplacement1">
			<dofs>x</dofs>
		</bc>
		<bc name="FixedDisplacement2" type="fix" node_set="@surface:FixedDisplacement2">
			<dofs>y</dofs>
		</bc>
		<bc name="Rigid1" type="rigid" node_set="@surface:Rigid1">
			<rb>1</rb>
		</bc>
	</Boundary>
	<Rigid>
		<rigid_constraint name="RigidConstraint5" type="fix">
			<rb>3</rb>
			<dofs>Rx,Ry,Rz,Ru,Rv,Rw</dofs>
		</rigid_constraint>
		<rigid_constraint name="RigidConstraint5" type="fix">
			<rb>1</rb>
			<dofs>Rx,Ry,Ru,Rv,Rw</dofs>
		</rigid_constraint>
	</Rigid>
	<Contact>
		<contact type="rigid_wall" name="RigidWall1" surface="RigidWall1">
			<laugon>1</laugon>
			<tolerance>0.02</tolerance>
			<penalty>1.5e+10</penalty>
			<offset>0</offset>
			<plane>0,0,1,-0.005</plane>
		</contact>
	</Contact>
	<Step>
		<step id="1" name="Descenso">
			<Control>
				<analysis>STATIC</analysis>
				<time_steps>5</time_steps>
				<step_size>0.1</step_size>
				<solver>
					<max_refs>15</max_refs>
					<max_ups>10</max_ups>
					<diverge_reform>1</diverge_reform>
					<reform_each_time_step>1</reform_each_time_step>
					<dtol>0.01</dtol>
					<etol>0.01</etol>
					<rtol>0</rtol>
					<lstol>0.9</lstol>
					<min_residual>1e-20</min_residual>
					<qnmethod>BFGS</qnmethod>
					<rhoi>0</rhoi>
				</solver>
				<time_stepper>
					<dtmin>0.01</dtmin>
					<dtmax>0.2</dtmax>
					<max_retries>5</max_retries>
					<opt_iter>10</opt_iter>
					<aggressiveness>1</aggressiveness>
				</time_stepper>
			</Control>
			<Rigid>
				<rigid_constraint name="RigidConstraint4" type="prescribe">
					<rb>1</rb>
					<dof>Rz</dof>
					<value lc="1">-0.0005</value>
					<relative>0</relative>
				</rigid_constraint>
			</Rigid>
			<Constraints>
			</Constraints>
		</step>
		<step id="2" name="Fuerza">
			<Control>
				<analysis>STATIC</analysis>
				<time_steps>20</time_steps>
				<step_size>0.1</step_size>
				<solver>
					<max_refs>15</max_refs>
					<max_ups>10</max_ups>
					<diverge_reform>1</diverge_reform>
					<reform_each_time_step>1</reform_each_time_step>
					<dtol>0.01</dtol>
					<etol>0.01</etol>
					<rtol>0</rtol>
					<lstol>0.9</lstol>
					<min_residual>1e-20</min_residual>
					<qnmethod>BFGS</qnmethod>
					<rhoi>0</rhoi>
				</solver>
				<time_stepper>
					<dtmin>0.01</dtmin>
					<dtmax>0.1</dtmax>
					<max_retries>10</max_retries>
					<opt_iter>10</opt_iter>
				</time_stepper>
			</Control>
			<Rigid>
				<rigid_constraint name="RigidConstraint3" type="force">
					<rb>1</rb>
					<dof>Rz</dof>
					<value lc="2">-10000</value>
					<load_type>2</load_type>
				</rigid_constraint>
			</Rigid>
			<Constraints>
			</Constraints>
		</step>
	</Step>
	<LoadData>
		<load_controller id="1" type="loadcurve">
			<interpolate>SMOOTH</interpolate>
			<points>
				<point>0,0</point>
				<point>0.5,1</point>
			</points>
		</load_controller>
		<load_controller id="2" type="loadcurve">
			<interpolate>LINEAR</interpolate>
			<points>
				<point>0.5,0</point>
				<point>2.5,1</point>
			</points>
		</load_controller>
	</LoadData>
	<Output>
		<plotfile type="febio">
			<var type="displacement"/>
			<var type="nodal stress"/>
			<var type="relative volume"/>
			<var type="rigid force"/>
			<var type="stress"/>
			<var type="surface area"/>
			<var type="facet area"/>
		</plotfile>
	</Output>
</febio_spec>
