<?xml version="1.0" encoding="ISO-8859-1"?>
<febio_spec version="3.0">
	<Module type="solid"/>
	<Control>
		<analysis>STATIC</analysis>
		<time_steps>10</time_steps>
		<step_size>0.1</step_size>
		<solver>
			<max_refs>15</max_refs>
			<max_ups>10</max_ups>
			<diverge_reform>1</diverge_reform>
			<reform_each_time_step>1</reform_each_time_step>
			<dtol>0.001</dtol>
			<etol>0.01</etol>
			<rtol>0</rtol>
			<lstol>0.9</lstol>
			<min_residual>1e-20</min_residual>
			<qnmethod>BFGS</qnmethod>
			<rhoi>0</rhoi>
		</solver>
		<time_stepper>
			<dtmin>0.01</dtmin>
			<dtmax>0.1</dtmax>
			<max_retries>5</max_retries>
			<opt_iter>10</opt_iter>
		</time_stepper>
	</Control>
	<Globals>
		<Constants>
			<T>0</T>
			<R>0</R>
			<Fc>0</Fc>
		</Constants>
	</Globals>
	<Material>
		<material id="1" name="Material1" type="neo-Hookean">
			<density>1</density>
			<E>10</E>
			<v>0.3</v>
		</material>
	</Material>
	<Mesh>
		<Nodes name="Object1">
			<node id="1">-2.5,-0.5,0</node>
			<node id="2">-2.5,-0.5,0.1</node>
			<node id="3">-2.5,-0.5,0.2</node>
			<node id="4">-2.5,-0.5,0.3</node>
			<node id="5">-2.5,-0.5,0.4</node>
			<node id="6">-2.5,-0.5,0.5</node>
			<node id="7">-2.5,-0.5,0.6</node>
			<node id="8">-2.5,-0.5,0.7</node>
			<node id="9">-2.5,-0.5,0.8</node>
			<node id="10">-2.5,-0.5,0.9</node>
			<node id="11">-2.5,-0.5,1</node>
			<node id="12">-2.5,-0.4,0</node>
			<node id="13">-2.5,-0.4,0.1</node>
			<node id="14">-2.5,-0.4,0.2</node>
			<node id="15">-2.5,-0.4,0.3</node>
			<node id="16">-2.5,-0.4,0.4</node>
			<node id="17">-2.5,-0.4,0.5</node>
			<node id="18">-2.5,-0.4,0.6</node>
			<node id="19">-2.5,-0.4,0.7</node>
			<node id="20">-2.5,-0.4,0.8</node>
<!-- ... 6151 like lines cut -->
		</Nodes>
		<Elements type="tet4" name="Part1">
			<elem id="1">122,133,12,134</elem>
			<elem id="2">1,122,12,134</elem>
			<elem id="3">1,134,12,13</elem>
			<elem id="4">122,123,134,1</elem>
			<elem id="5">2,13,123,1</elem>
			<elem id="6">123,13,134,1</elem>
			<elem id="7">123,134,13,135</elem>
			<elem id="8">2,123,13,135</elem>
			<elem id="9">2,135,13,14</elem>
			<elem id="10">123,124,135,2</elem>
			<elem id="11">3,14,124,2</elem>
			<elem id="12">124,14,135,2</elem>
			<elem id="13">124,135,14,136</elem>
			<elem id="14">3,124,14,136</elem>
			<elem id="15">3,136,14,15</elem>
			<elem id="16">124,125,136,3</elem>
			<elem id="17">4,15,125,3</elem>
			<elem id="18">125,15,136,3</elem>
			<elem id="19">125,136,15,137</elem>
			<elem id="20">4,125,15,137</elem>
<!-- ... 29980 like lines cut -->
		</Elements>
		<Surface name="FixedDisplacement1">
			<tri3 id="1">111,100,112</tri3>
			<tri3 id="2">100,101,112</tri3>
			<tri3 id="3">112,101,113</tri3>
			<tri3 id="4">101,102,113</tri3>
			<tri3 id="5">113,102,114</tri3>
			<tri3 id="6">102,103,114</tri3>
			<tri3 id="7">114,103,115</tri3>
			<tri3 id="8">103,104,115</tri3>
			<tri3 id="9">115,104,116</tri3>
			<tri3 id="10">104,105,116</tri3>
			<tri3 id="11">116,105,117</tri3>
			<tri3 id="12">105,106,117</tri3>
			<tri3 id="13">117,106,118</tri3>
			<tri3 id="14">106,107,118</tri3>
			<tri3 id="15">118,107,119</tri3>
			<tri3 id="16">107,108,119</tri3>
			<tri3 id="17">119,108,120</tri3>
			<tri3 id="18">108,109,120</tri3>
			<tri3 id="19">120,109,121</tri3>
			<tri3 id="20">109,110,121</tri3>
<!-- ... 180 like lines cut -->
		</Surface>
		<Surface name="SurfaceTraction1">
			<tri3 id="1">6051,6062,6063</tri3>
			<tri3 id="2">6063,6052,6051</tri3>
			<tri3 id="3">6052,6063,6064</tri3>
			<tri3 id="4">6064,6053,6052</tri3>
			<tri3 id="5">6053,6064,6065</tri3>
			<tri3 id="6">6065,6054,6053</tri3>
			<tri3 id="7">6054,6065,6066</tri3>
			<tri3 id="8">6066,6055,6054</tri3>
			<tri3 id="9">6055,6066,6067</tri3>
			<tri3 id="10">6067,6056,6055</tri3>
			<tri3 id="11">6056,6067,6068</tri3>
			<tri3 id="12">6068,6057,6056</tri3>
			<tri3 id="13">6057,6068,6069</tri3>
			<tri3 id="14">6069,6058,6057</tri3>
			<tri3 id="15">6058,6069,6070</tri3>
			<tri3 id="16">6070,6059,6058</tri3>
			<tri3 id="17">6059,6070,6071</tri3>
			<tri3 id="18">6071,6060,6059</tri3>
			<tri3 id="19">6060,6071,6072</tri3>
			<tri3 id="20">6072,6061,6060</tri3>
<!-- ... 180 like lines cut -->
		</Surface>
	</Mesh>
	<MeshDomains>
		<SolidDomain name="Part1" mat="Material1"/>
	</MeshDomains>
	<Boundary>
		<bc name="FixedDisplacement1" type="fix" node_set="@surface:FixedDisplacement1">
			<dofs>x,y,z</dofs>
		</bc>
	</Boundary>
	<Loads>
		<surface_load name="SurfaceTraction1" type="traction" surface="SurfaceTraction1">
			<scale lc="1">1</scale>
			<traction>1,0,0</traction>
		</surface_load>
	</Loads>
	<LoadData>
		<load_controller id="1" type="loadcurve">
			<interpolate>SMOOTH</interpolate>
			<points>
				<point>0,0</point>
				<point>1,1</point>
			</points>
		</load_controller>
	</LoadData>
	<Output>
		<plotfile type="febio">
			<var type="displacement"/>
			<var type="nodal stress"/>
			<var type="relative volume"/>
			<var type="stress"/>
			<var type="PK1 stress"/>
			<var type="PK2 stress"/>
		</plotfile>
	</Output>
</febio_spec>
